*HEADING
TPMS lattice volumetric mesh (C3D8 voxel) - TPMS Explorer v1.0.3
** solid voxels: voxels classified by implicit field (solid fraction 0.3148)
** units: mm, N, MPa; specimen size 2.000 mm; voxel h = 3.1250e-2 mm
**
*NODE
1, -0.18749999999999994, -1, -1
2, -0.15625000000000003, -1, -1
3, -0.125, -1, -1
4, -0.09374999999999997, -1, -1
5, -0.31250000000000006, -0.96875, -1
6, -0.28125000000000006, -0.96875, -1
7, -0.25, -0.96875, -1
8, -0.21874999999999997, -0.96875, -1
9, -0.18749999999999994, -0.96875, -1
10, -0.15625000000000003, -0.96875, -1
11, -0.125, -0.96875, -1
12, -0.09374999999999997, -0.96875, -1
13, -0.34375, -0.9375, -1
14, -0.31250000000000006, -0.9375, -1
15, -0.28125000000000006, -0.9375, -1
16, -0.25, -0.9375, -1
17, -0.21874999999999997, -0.9375, -1
18, -0.18749999999999994, -0.9375, -1
19, -0.15625000000000003, -0.9375, -1
20, -0.125, -0.9375, -1
** ... 102937 like lines cut
*ELEMENT, TYPE=C3D8, ELSET=ESOLID
1, 1, 2, 10, 9, 1547, 1548, 1556, 1555
2, 2, 3, 11, 10, 1548, 1549, 1557, 1556
3, 3, 4, 12, 11, 1549, 1550, 1558, 1557
4, 5, 6, 15, 14, 1551, 1552, 1562, 1561
5, 6, 7, 16, 15, 1552, 1553, 1563, 1562
6, 7, 8, 17, 16, 1553, 1554, 1564, 1563
7, 8, 9, 18, 17, 1554, 1555, 1565, 1564
8, 9, 10, 19, 18, 1555, 1556, 1566, 1565
9, 10, 11, 20, 19, 1556, 1557, 1567, 1566
10, 13, 14, 22, 21, 1560, 1561, 1570, 1569
11, 14, 15, 23, 22, 1561, 1562, 1571, 1570
12, 15, 16, 24, 23, 1562, 1563, 1572, 1571
13, 16, 17, 25, 24, 1563, 1564, 1573, 1572
14, 17, 18, 26, 25, 1564, 1565, 1574, 1573
15, 27, 28, 41, 40, 1575, 1576, 1593, 1592
16, 28, 29, 42, 41, 1576, 1577, 1594, 1593
17, 29, 30, 43, 42, 1577, 1578, 1595, 1594
18, 30, 31, 44, 43, 1578, 1579, 1596, 1595
19, 31, 32, 45, 44, 1579, 1580, 1597, 1596
20, 33, 34, 51, 50, 1583, 1584, 1604, 1603
** ... 82508 like lines cut
*NSET, NSET=NSET_BOTTOM
1, 2, 3, 4, 5, 6, 7, 8
9, 10, 11, 12, 13, 14, 15, 16
17, 18, 19, 20, 21, 22, 23, 24
25, 26, 27, 28, 29, 30, 31, 32
33, 34, 35, 36, 37, 38, 39, 40
41, 42, 43, 44, 45, 46, 47, 48
49, 50, 51, 52, 53, 54, 55, 56
57, 58, 59, 60, 61, 62, 63, 64
65, 66, 67, 68, 69, 70, 71, 72
73, 74, 75, 76, 77, 78, 79, 80
81, 82, 83, 84, 85, 86, 87, 88
89, 90, 91, 92, 93, 94, 95, 96
97, 98, 99, 100, 101, 102, 103, 104
105, 106, 107, 108, 109, 110, 111, 112
113, 114, 115, 116, 117, 118, 119, 120
121, 122, 123, 124, 125, 126, 127, 128
129, 130, 131, 132, 133, 134, 135, 136
137, 138, 139, 140, 141, 142, 143, 144
145, 146, 147, 148, 149, 150, 151, 152
153, 154, 155, 156, 157, 158, 159, 160
** ... 174 like lines cut
*NSET, NSET=NSET_TOP
101419, 101420, 101421, 101422, 101423, 101424, 101425, 101426
101427, 101428, 101429, 101430, 101431, 101432, 101433, 101434
101435, 101436, 101437, 101438, 101439, 101440, 101441, 101442
101443, 101444, 101445, 101446, 101447, 101448, 101449, 101450
101451, 101452, 101453, 101454, 101455, 101456, 101457, 101458
101459, 101460, 101461, 101462, 101463, 101464, 101465, 101466
101467, 101468, 101469, 101470, 101471, 101472, 101473, 101474
101475, 101476, 101477, 101478, 101479, 101480, 101481, 101482
101483, 101484, 101485, 101486, 101487, 101488, 101489, 101490
101491, 101492, 101493, 101494, 101495, 101496, 101497, 101498
101499, 101500, 101501, 101502, 101503, 101504, 101505, 101506
101507, 101508, 101509, 101510, 101511, 101512, 101513, 101514
101515, 101516, 101517, 101518, 101519, 101520, 101521, 101522
101523, 101524, 101525, 101526, 101527, 101528, 101529, 101530
101531, 101532, 101533, 101534, 101535, 101536, 101537, 101538
101539, 101540, 101541, 101542, 101543, 101544, 101545, 101546
101547, 101548, 101549, 101550, 101551, 101552, 101553, 101554
101555, 101556, 101557, 101558, 101559, 101560, 101561, 101562
101563, 101564, 101565, 101566, 101567, 101568, 101569, 101570
101571, 101572, 101573, 101574, 101575, 101576, 101577, 101578
** ... 173 like lines cut
*NSET, NSET=NSET_PBC_X0
568, 633, 698, 749, 2134, 2199, 2264, 2317
3749, 3814, 3877, 23900, 23949, 24012, 25462, 25509
25562, 25627, 27024, 27063, 27110, 27165, 27230, 28585
28620, 28659, 28706, 28759, 28824, 30152, 30183, 30218
30257, 30300, 30349, 30412, 31672, 31699, 31728, 31761
31796, 31833, 31874, 31919, 31970, 33169, 33194, 33221
33250, 33281, 33316, 33353, 33390, 33433, 33478, 34599
34618, 34639, 34664, 34691, 34718, 34747, 34780, 34813
34848, 34883, 34920, 34961, 36092, 36115, 36142, 36169
36196, 36227, 36258, 36289, 36322, 36357, 36392, 36429
36466, 37586, 37615, 37644, 37673, 37702, 37733, 37764
37795, 37826, 37859, 37892, 37927, 37962, 39075, 39106
39139, 39170, 39203, 39234, 39265, 39296, 39327, 39358
39391, 39422, 39455, 40564, 40599, 40634, 40669, 40702
40735, 40766, 40797, 40828, 40859, 40888, 40917, 40946
42056, 42095, 42132, 42169, 42204, 42239, 42272, 42303
42334, 42365, 42392, 42419, 42446, 43557, 43600, 43641
43678, 43713, 43748, 43781, 43814, 43843, 43870, 43897
43922, 43943, 45034, 45083, 45128, 45171, 45208, 45245
45280, 45311, 45340, 45367, 46528, 46591, 46642, 46687
** ... 26 like lines cut
*NSET, NSET=NSET_PBC_X1
632, 697, 748, 793, 829, 2198, 2263, 2316
2363, 2401, 3813, 3876, 3925, 3967, 5433, 5483
22391, 22453, 23899, 23948, 24011, 24076, 25461, 25508
25561, 25626, 25691, 27023, 27062, 27109, 27164, 27229
27294, 28584, 28619, 28658, 28705, 28758, 28823, 28888
30151, 30182, 30217, 30256, 30299, 30348, 30411, 30476
31671, 31698, 31727, 31760, 31795, 31832, 31873, 31918
31969, 32032, 33150, 33168, 33193, 33220, 33249, 33280
33315, 33352, 33389, 33432, 33477, 33526, 34617, 34638
34663, 34690, 34717, 34746, 34779, 34812, 34847, 34882
34919, 34960, 35003, 36114, 36141, 36168, 36195, 36226
36257, 36288, 36321, 36356, 36391, 36428, 36465, 36504
37614, 37643, 37672, 37701, 37732, 37763, 37794, 37825
37858, 37891, 37926, 37961, 37996, 39105, 39138, 39169
39202, 39233, 39264, 39295, 39326, 39357, 39390, 39421
39454, 39485, 40598, 40633, 40668, 40701, 40734, 40765
40796, 40827, 40858, 40887, 40916, 40945, 40974, 42094
42131, 42168, 42203, 42238, 42271, 42302, 42333, 42364
42391, 42418, 42445, 42468, 43599, 43640, 43677, 43712
43747, 43780, 43813, 43842, 43869, 43896, 43921, 43942
** ... 31 like lines cut
*NSET, NSET=NSET_PBC_Y0
1, 2, 3, 4, 1547, 1548, 1549, 1550
3151, 3152, 3153, 3154, 4769, 4770, 4771, 6378
6379, 7967, 7968, 9639, 9640, 11348, 11349, 13057
13058, 14769, 14770, 16478, 16479, 18187, 18188, 18189
19859, 19860, 19861, 21448, 21449, 21450, 21451, 23057
23058, 23059, 23060, 24675, 24676, 24677, 24678, 24679
26279, 26280, 26281, 26282, 26283, 26284, 27877, 27878
27879, 27880, 27881, 27882, 27883, 29468, 29469, 29470
29471, 29472, 29473, 29474, 29475, 31056, 31057, 31058
31059, 31060, 31061, 31062, 31063, 31064, 32606, 32607
32608, 32609, 32610, 32611, 32612, 32613, 32614, 34071
34072, 34073, 34074, 34075, 34076, 34077, 34078, 34079
34080, 35555, 35556, 35557, 35558, 35559, 35560, 35561
35562, 35563, 35564, 37052, 37053, 37054, 37055, 37056
37057, 37058, 37059, 37060, 37061, 38537, 38538, 38539
38540, 38541, 38542, 38543, 38544, 38545, 38546, 40024
40025, 40026, 40027, 40028, 40029, 40030, 40031, 40032
40033, 41509, 41510, 41511, 41512, 41513, 41514, 41515
41516, 41517, 41518, 43006, 43007, 43008, 43009, 43010
43011, 43012, 43013, 43014, 44490, 44491, 44492, 44493
** ... 28 like lines cut
*NSET, NSET=NSET_PBC_Y1
1542, 1543, 1544, 1545, 1546, 3146, 3147, 3148
3149, 3150, 4765, 4766, 4767, 4768, 6374, 6375
6376, 6377, 7964, 7965, 7966, 9636, 9637, 9638
11346, 11347, 13055, 13056, 14767, 14768, 16476, 16477
18185, 18186, 19857, 19858, 21446, 21447, 23054, 23055
23056, 24671, 24672, 24673, 24674, 26275, 26276, 26277
26278, 27872, 27873, 27874, 27875, 27876, 29462, 29463
29464, 29465, 29466, 29467, 31049, 31050, 31051, 31052
31053, 31054, 31055, 32598, 32599, 32600, 32601, 32602
32603, 32604, 32605, 34062, 34063, 34064, 34065, 34066
34067, 34068, 34069, 34070, 35546, 35547, 35548, 35549
35550, 35551, 35552, 35553, 35554, 37042, 37043, 37044
37045, 37046, 37047, 37048, 37049, 37050, 37051, 38527
38528, 38529, 38530, 38531, 38532, 38533, 38534, 38535
38536, 40014, 40015, 40016, 40017, 40018, 40019, 40020
40021, 40022, 40023, 41499, 41500, 41501, 41502, 41503
41504, 41505, 41506, 41507, 41508, 42996, 42997, 42998
42999, 43000, 43001, 43002, 43003, 43004, 43005, 44480
44481, 44482, 44483, 44484, 44485, 44486, 44487, 44488
44489, 45946, 45947, 45948, 45949, 45950, 45951, 45952
** ... 28 like lines cut
*NSET, NSET=NSET_PBC_Z0
1, 2, 3, 4, 5, 6, 7, 8
9, 10, 11, 12, 13, 14, 15, 16
17, 18, 19, 20, 21, 22, 23, 24
25, 26, 27, 28, 29, 30, 31, 32
33, 34, 35, 36, 37, 38, 39, 40
41, 42, 43, 44, 45, 46, 47, 48
49, 50, 51, 52, 53, 54, 55, 56
57, 58, 59, 60, 61, 62, 63, 64
65, 66, 67, 68, 69, 70, 71, 72
73, 74, 75, 76, 77, 78, 79, 80
81, 82, 83, 84, 85, 86, 87, 88
89, 90, 91, 92, 93, 94, 95, 96
97, 98, 99, 100, 101, 102, 103, 104
105, 106, 107, 108, 109, 110, 111, 112
113, 114, 115, 116, 117, 118, 119, 120
121, 122, 123, 124, 125, 126, 127, 128
129, 130, 131, 132, 133, 134, 135, 136
137, 138, 139, 140, 141, 142, 143, 144
145, 146, 147, 148, 149, 150, 151, 152
153, 154, 155, 156, 157, 158, 159, 160
** ... 174 like lines cut
*NSET, NSET=NSET_PBC_Z1
101419, 101420, 101421, 101422, 101423, 101424, 101425, 101426
101427, 101428, 101429, 101430, 101431, 101432, 101433, 101434
101435, 101436, 101437, 101438, 101439, 101440, 101441, 101442
101443, 101444, 101445, 101446, 101447, 101448, 101449, 101450
101451, 101452, 101453, 101454, 101455, 101456, 101457, 101458
101459, 101460, 101461, 101462, 101463, 101464, 101465, 101466
101467, 101468, 101469, 101470, 101471, 101472, 101473, 101474
101475, 101476, 101477, 101478, 101479, 101480, 101481, 101482
101483, 101484, 101485, 101486, 101487, 101488, 101489, 101490
101491, 101492, 101493, 101494, 101495, 101496, 101497, 101498
101499, 101500, 101501, 101502, 101503, 101504, 101505, 101506
101507, 101508, 101509, 101510, 101511, 101512, 101513, 101514
101515, 101516, 101517, 101518, 101519, 101520, 101521, 101522
101523, 101524, 101525, 101526, 101527, 101528, 101529, 101530
101531, 101532, 101533, 101534, 101535, 101536, 101537, 101538
101539, 101540, 101541, 101542, 101543, 101544, 101545, 101546
101547, 101548, 101549, 101550, 101551, 101552, 101553, 101554
101555, 101556, 101557, 101558, 101559, 101560, 101561, 101562
101563, 101564, 101565, 101566, 101567, 101568, 101569, 101570
101571, 101572, 101573, 101574, 101575, 101576, 101577, 101578
** ... 173 like lines cut
**
** PBC usage: couple NSET_PBC_X0/X1 (and Y/Z) with *EQUATION or a submodel of periodic MPC; edge/corner masters need dedicated sets in production workflows.
*SOLID SECTION, ELSET=ESOLID, MATERIAL=TPMS_MATRIX
*MATERIAL, NAME=TPMS_MATRIX
*ELASTIC
110000, 0.34
**
** Uniaxial compression along Z (bottom fixed, top displaced)
*STEP
*STATIC
*BOUNDARY
NSET_BOTTOM, 3, 3, 0.0
NSET_TOP, 3, 3, -0.100000
*OUTPUT, FIELD
*ELEMENT OUTPUT
S, E
*NODE OUTPUT
U
*OUTPUT, HISTORY
*NODE OUTPUT, NSET=NSET_TOP
RF, U
*END STEP
