*HEADING
TPMS lattice volumetric mesh (C3D8 voxel) - TPMS Explorer v1.0.3
** solid voxels: voxels classified by implicit field (solid fraction 0.3472)
** units: mm, N, MPa; specimen size 4.000 mm; voxel h = 8.3333e-2 mm
**
*NODE
1, -1.4166666666666667, -2, -2
2, -1.3333333333333335, -2, -2
3, -1.25, -2, -2
4, -1.1666666666666667, -2, -2
5, -0.4166666666666668, -2, -2
6, -0.33333333333333354, -2, -2
7, -0.25, -2, -2
8, -0.16666666666666677, -2, -2
9, 0.5833333333333333, -2, -2
10, 0.6666666666666665, -2, -2
11, 0.7499999999999998, -2, -2
12, 0.8333333333333329, -2, -2
13, 1.5833333333333333, -2, -2
14, 1.6666666666666665, -2, -2
15, 1.7499999999999998, -2, -2
16, 1.833333333333333, -2, -2
17, -1.4166666666666667, -1.9166666666666667, -2
18, -1.3333333333333335, -1.9166666666666667, -2
19, -1.25, -1.9166666666666667, -2
20, -1.1666666666666667, -1.9166666666666667, -2
** ... 62064 like lines cut
*ELEMENT, TYPE=C3D8, ELSET=ESOLID
1, 1, 2, 18, 17, 1182, 1183, 1203, 1202
2, 2, 3, 19, 18, 1183, 1184, 1204, 1203
3, 3, 4, 20, 19, 1184, 1185, 1205, 1204
4, 5, 6, 22, 21, 1187, 1188, 1208, 1207
5, 6, 7, 23, 22, 1188, 1189, 1209, 1208
6, 7, 8, 24, 23, 1189, 1190, 1210, 1209
7, 9, 10, 26, 25, 1192, 1193, 1213, 1212
8, 10, 11, 27, 26, 1193, 1194, 1214, 1213
9, 11, 12, 28, 27, 1194, 1195, 1215, 1214
10, 13, 14, 30, 29, 1197, 1198, 1218, 1217
11, 14, 15, 31, 30, 1198, 1199, 1219, 1218
12, 15, 16, 32, 31, 1199, 1200, 1220, 1219
13, 33, 34, 51, 50, 1221, 1222, 1243, 1242
14, 34, 35, 52, 51, 1222, 1223, 1244, 1243
15, 35, 36, 53, 52, 1223, 1224, 1245, 1244
16, 37, 38, 57, 56, 1226, 1227, 1250, 1249
17, 38, 39, 58, 57, 1227, 1228, 1251, 1250
18, 39, 40, 59, 58, 1228, 1229, 1252, 1251
19, 41, 42, 63, 62, 1231, 1232, 1257, 1256
20, 42, 43, 64, 63, 1232, 1233, 1258, 1257
** ... 38380 like lines cut
*NSET, NSET=NSET_BOTTOM
1, 2, 3, 4, 5, 6, 7, 8
9, 10, 11, 12, 13, 14, 15, 16
17, 18, 19, 20, 21, 22, 23, 24
25, 26, 27, 28, 29, 30, 31, 32
33, 34, 35, 36, 37, 38, 39, 40
41, 42, 43, 44, 45, 46, 47, 48
49, 50, 51, 52, 53, 54, 55, 56
57, 58, 59, 60, 61, 62, 63, 64
65, 66, 67, 68, 69, 70, 71, 72
73, 74, 75, 76, 77, 78, 79, 80
81, 82, 83, 84, 85, 86, 87, 88
89, 90, 91, 92, 93, 94, 95, 96
97, 98, 99, 100, 101, 102, 103, 104
105, 106, 107, 108, 109, 110, 111, 112
113, 114, 115, 116, 117, 118, 119, 120
121, 122, 123, 124, 125, 126, 127, 128
129, 130, 131, 132, 133, 134, 135, 136
137, 138, 139, 140, 141, 142, 143, 144
145, 146, 147, 148, 149, 150, 151, 152
153, 154, 155, 156, 157, 158, 159, 160
** ... 128 like lines cut
*NSET, NSET=NSET_TOP
60897, 60898, 60899, 60900, 60901, 60902, 60903, 60904
60905, 60906, 60907, 60908, 60909, 60910, 60911, 60912
60913, 60914, 60915, 60916, 60917, 60918, 60919, 60920
60921, 60922, 60923, 60924, 60925, 60926, 60927, 60928
60929, 60930, 60931, 60932, 60933, 60934, 60935, 60936
60937, 60938, 60939, 60940, 60941, 60942, 60943, 60944
60945, 60946, 60947, 60948, 60949, 60950, 60951, 60952
60953, 60954, 60955, 60956, 60957, 60958, 60959, 60960
60961, 60962, 60963, 60964, 60965, 60966, 60967, 60968
60969, 60970, 60971, 60972, 60973, 60974, 60975, 60976
60977, 60978, 60979, 60980, 60981, 60982, 60983, 60984
60985, 60986, 60987, 60988, 60989, 60990, 60991, 60992
60993, 60994, 60995, 60996, 60997, 60998, 60999, 61000
61001, 61002, 61003, 61004, 61005, 61006, 61007, 61008
61009, 61010, 61011, 61012, 61013, 61014, 61015, 61016
61017, 61018, 61019, 61020, 61021, 61022, 61023, 61024
61025, 61026, 61027, 61028, 61029, 61030, 61031, 61032
61033, 61034, 61035, 61036, 61037, 61038, 61039, 61040
61041, 61042, 61043, 61044, 61045, 61046, 61047, 61048
61049, 61050, 61051, 61052, 61053, 61054, 61055, 61056
** ... 129 like lines cut
*NSET, NSET=NSET_PBC_X0
73, 105, 154, 203, 364, 396, 445, 494
655, 687, 736, 785, 946, 978, 1027, 1076
1269, 1301, 1350, 1399, 1576, 1608, 1657, 1706
1883, 1915, 1964, 2013, 2190, 2222, 2271, 2320
6241, 6290, 6339, 6388, 6548, 6597, 6646, 6695
6855, 6904, 6953, 7002, 7162, 7211, 7260, 7309
7457, 7494, 7543, 7592, 7641, 7678, 7774, 7811
7860, 7909, 7958, 7995, 8091, 8128, 8177, 8226
8275, 8312, 8408, 8445, 8494, 8543, 8592, 8629
8717, 8746, 8779, 8828, 8877, 8926, 8959, 8988
9028, 9057, 9090, 9139, 9188, 9237, 9270, 9299
9339, 9368, 9401, 9450, 9499, 9548, 9581, 9610
9650, 9679, 9712, 9761, 9810, 9859, 9892, 9921
9981, 10006, 10031, 10064, 10101, 10134, 10159, 10184
10209, 10230, 10251, 10272, 10297, 10322, 10347, 10380
10417, 10450, 10475, 10500, 10525, 10546, 10567, 10588
10613, 10638, 10663, 10696, 10733, 10766, 10791, 10816
10841, 10862, 10883, 10904, 10929, 10954, 10979, 11012
11049, 11082, 11107, 11132, 11157, 11178, 11199, 11220
11245, 11270, 11295, 11320, 11349, 11378, 11407, 11432
** ... 128 like lines cut
*NSET, NSET=NSET_PBC_X1
153, 202, 251, 283, 444, 493, 542, 574
735, 784, 833, 865, 1026, 1075, 1124, 1156
1349, 1398, 1447, 1479, 1656, 1705, 1754, 1786
1963, 2012, 2061, 2093, 2270, 2319, 2368, 2400
6240, 6289, 6338, 6387, 6547, 6596, 6645, 6694
6854, 6903, 6952, 7001, 7161, 7210, 7259, 7308
7456, 7493, 7542, 7591, 7640, 7677, 7773, 7810
7859, 7908, 7957, 7994, 8090, 8127, 8176, 8225
8274, 8311, 8407, 8444, 8493, 8542, 8591, 8628
8745, 8778, 8827, 8876, 8925, 8958, 8987, 9027
9056, 9089, 9138, 9187, 9236, 9269, 9298, 9338
9367, 9400, 9449, 9498, 9547, 9580, 9609, 9649
9678, 9711, 9760, 9809, 9858, 9891, 9920, 9960
9980, 10005, 10030, 10063, 10100, 10133, 10158, 10183
10208, 10229, 10250, 10271, 10296, 10321, 10346, 10379
10416, 10449, 10474, 10499, 10524, 10545, 10566, 10587
10612, 10637, 10662, 10695, 10732, 10765, 10790, 10815
10840, 10861, 10882, 10903, 10928, 10953, 10978, 11011
11048, 11081, 11106, 11131, 11156, 11177, 11198, 11219
11244, 11269, 11294, 11319, 11348, 11377, 11406, 11431
** ... 129 like lines cut
*NSET, NSET=NSET_PBC_Y0
1, 2, 3, 4, 5, 6, 7, 8
9, 10, 11, 12, 13, 14, 15, 16
1181, 1182, 1183, 1184, 1185, 1186, 1187, 1188
1189, 1190, 1191, 1192, 1193, 1194, 1195, 1196
1197, 1198, 1199, 1200, 2429, 2430, 2431, 2432
2433, 2434, 2435, 2436, 2437, 2438, 2439, 2440
2441, 2442, 2443, 2444, 2445, 2446, 2447, 2448
2449, 2450, 2451, 2452, 3669, 3670, 3671, 3672
3673, 3674, 3675, 3676, 3677, 3678, 3679, 3680
3681, 3682, 3683, 3684, 3685, 3686, 3687, 3688
3689, 3690, 3691, 3692, 4941, 4942, 4943, 4944
4945, 4946, 4947, 4948, 4949, 4950, 4951, 4952
4953, 4954, 4955, 4956, 4957, 4958, 4959, 4960
4961, 4962, 4963, 4964, 6181, 6182, 6183, 6184
6185, 6186, 6187, 6188, 6189, 6190, 6191, 6192
6193, 6194, 6195, 6196, 6197, 6198, 6199, 6200
6201, 6202, 6203, 6204, 6205, 6206, 6207, 6208
7429, 7430, 7431, 7432, 7433, 7434, 7435, 7436
7437, 7438, 7439, 7440, 7441, 7442, 7443, 7444
7445, 7446, 7447, 7448, 7449, 7450, 7451, 7452
** ... 128 like lines cut
*NSET, NSET=NSET_PBC_Y1
1157, 1158, 1159, 1160, 1161, 1162, 1163, 1164
1165, 1166, 1167, 1168, 1169, 1170, 1171, 1172
1173, 1174, 1175, 1176, 1177, 1178, 1179, 1180
2401, 2402, 2403, 2404, 2405, 2406, 2407, 2408
2409, 2410, 2411, 2412, 2413, 2414, 2415, 2416
2417, 2418, 2419, 2420, 2421, 2422, 2423, 2424
2425, 2426, 2427, 2428, 3645, 3646, 3647, 3648
3649, 3650, 3651, 3652, 3653, 3654, 3655, 3656
3657, 3658, 3659, 3660, 3661, 3662, 3663, 3664
3665, 3666, 3667, 3668, 4917, 4918, 4919, 4920
4921, 4922, 4923, 4924, 4925, 4926, 4927, 4928
4929, 4930, 4931, 4932, 4933, 4934, 4935, 4936
4937, 4938, 4939, 4940, 6157, 6158, 6159, 6160
6161, 6162, 6163, 6164, 6165, 6166, 6167, 6168
6169, 6170, 6171, 6172, 6173, 6174, 6175, 6176
6177, 6178, 6179, 6180, 7409, 7410, 7411, 7412
7413, 7414, 7415, 7416, 7417, 7418, 7419, 7420
7421, 7422, 7423, 7424, 7425, 7426, 7427, 7428
8697, 8698, 8699, 8700, 8701, 8702, 8703, 8704
8705, 8706, 8707, 8708, 8709, 8710, 8711, 8712
** ... 129 like lines cut
*NSET, NSET=NSET_PBC_Z0
1, 2, 3, 4, 5, 6, 7, 8
9, 10, 11, 12, 13, 14, 15, 16
17, 18, 19, 20, 21, 22, 23, 24
25, 26, 27, 28, 29, 30, 31, 32
33, 34, 35, 36, 37, 38, 39, 40
41, 42, 43, 44, 45, 46, 47, 48
49, 50, 51, 52, 53, 54, 55, 56
57, 58, 59, 60, 61, 62, 63, 64
65, 66, 67, 68, 69, 70, 71, 72
73, 74, 75, 76, 77, 78, 79, 80
81, 82, 83, 84, 85, 86, 87, 88
89, 90, 91, 92, 93, 94, 95, 96
97, 98, 99, 100, 101, 102, 103, 104
105, 106, 107, 108, 109, 110, 111, 112
113, 114, 115, 116, 117, 118, 119, 120
121, 122, 123, 124, 125, 126, 127, 128
129, 130, 131, 132, 133, 134, 135, 136
137, 138, 139, 140, 141, 142, 143, 144
145, 146, 147, 148, 149, 150, 151, 152
153, 154, 155, 156, 157, 158, 159, 160
** ... 128 like lines cut
*NSET, NSET=NSET_PBC_Z1
60897, 60898, 60899, 60900, 60901, 60902, 60903, 60904
60905, 60906, 60907, 60908, 60909, 60910, 60911, 60912
60913, 60914, 60915, 60916, 60917, 60918, 60919, 60920
60921, 60922, 60923, 60924, 60925, 60926, 60927, 60928
60929, 60930, 60931, 60932, 60933, 60934, 60935, 60936
60937, 60938, 60939, 60940, 60941, 60942, 60943, 60944
60945, 60946, 60947, 60948, 60949, 60950, 60951, 60952
60953, 60954, 60955, 60956, 60957, 60958, 60959, 60960
60961, 60962, 60963, 60964, 60965, 60966, 60967, 60968
60969, 60970, 60971, 60972, 60973, 60974, 60975, 60976
60977, 60978, 60979, 60980, 60981, 60982, 60983, 60984
60985, 60986, 60987, 60988, 60989, 60990, 60991, 60992
60993, 60994, 60995, 60996, 60997, 60998, 60999, 61000
61001, 61002, 61003, 61004, 61005, 61006, 61007, 61008
61009, 61010, 61011, 61012, 61013, 61014, 61015, 61016
61017, 61018, 61019, 61020, 61021, 61022, 61023, 61024
61025, 61026, 61027, 61028, 61029, 61030, 61031, 61032
61033, 61034, 61035, 61036, 61037, 61038, 61039, 61040
61041, 61042, 61043, 61044, 61045, 61046, 61047, 61048
61049, 61050, 61051, 61052, 61053, 61054, 61055, 61056
** ... 129 like lines cut
**
** PBC usage: couple NSET_PBC_X0/X1 (and Y/Z) with *EQUATION or a submodel of periodic MPC; edge/corner masters need dedicated sets in production workflows.
*SOLID SECTION, ELSET=ESOLID, MATERIAL=TPMS_MATRIX
*MATERIAL, NAME=TPMS_MATRIX
*ELASTIC
110000, 0.34
**
** Uniaxial compression along Z (bottom fixed, top displaced)
*STEP
*STATIC
*BOUNDARY
NSET_BOTTOM, 3, 3, 0.0
NSET_TOP, 3, 3, -0.200000
*OUTPUT, FIELD
*ELEMENT OUTPUT
S, E
*NODE OUTPUT
U
*OUTPUT, HISTORY
*NODE OUTPUT, NSET=NSET_TOP
RF, U
*END STEP
